[TITLE]
;;Project Title/Notes

[OPTIONS]
;;Option             Value
FLOW_UNITS           CFS
INFILTRATION         HORTON
FLOW_ROUTING         DYNWAVE
LINK_OFFSETS         DEPTH
MIN_SLOPE            0
ALLOW_PONDING        NO
SKIP_STEADY_STATE    NO

START_DATE           04/09/2024
START_TIME           00:00:00
REPORT_START_DATE    04/09/2024
REPORT_START_TIME    00:00:00
END_DATE             04/10/2024
END_TIME             00:00:00
SWEEP_START          1/1
SWEEP_END            12/31
DRY_DAYS             0
REPORT_STEP          00:05:00
WET_STEP             00:05:00
DRY_STEP             00:05:00
ROUTING_STEP         0:00:30
RULE_STEP            00:00:00

INERTIAL_DAMPING     PARTIAL
NORMAL_FLOW_LIMITED  BOTH
FORCE_MAIN_EQUATION  H-W
VARIABLE_STEP        0.75
LENGTHENING_STEP     0
MIN_SURFAREA         0
MAX_TRIALS           8
HEAD_TOLERANCE       0
SYS_FLOW_TOL         5
LAT_FLOW_TOL         5
MINIMUM_STEP         0.5
THREADS              2

[EVAPORATION]
;;Data Source    Parameters
;;-------------- ----------------
CONSTANT         0.0
DRY_ONLY         NO

[RAINGAGES]
;;Name           Format    Interval SCF      Source
;;-------------- --------- ------ ------ ----------
;SCS_Type_III_1yr_24hr_Hartford
Raingage         VOLUME    0:06     1.0      TIMESERIES SCS_Type_III_1yr_24hr_Hartford

[SUBCATCHMENTS]
;;Name           Rain Gage        Outlet           Area     %Imperv  Width    %Slope   CurbLen  SnowPack
;;-------------- ---------------- ---------------- -------- -------- -------- -------- -------- ----------------
1                Raingage         SU1              5        5        500      0.5      0

[SUBAREAS]
;;Subcatchment   N-Imperv   N-Perv     S-Imperv   S-Perv     PctZero    RouteTo    PctRouted
;;-------------- ---------- ---------- ---------- ---------- ---------- ---------- ----------
1                0.01       0.1        0.05       0.05       0          OUTLET

[INFILTRATION]
;;Subcatchment   Param1     Param2     Param3     Param4     Param5
;;-------------- ---------- ---------- ---------- ---------- ----------
1                3.0        0.5        4          7          0

[JUNCTIONS]
;;Name           Elevation  MaxDepth   InitDepth  SurDepth   Aponded
;;-------------- ---------- ---------- ---------- ---------- ----------
J1               1.957      10.043     0          0          0
J10              1.712      10.288     0          0          0
J11              1.542      10.458     0          0          0
J12              1.34       10.66      0          0          0
J13              0.447      11.553     0          0          0
J14              0.372      11.628     0          0          0
J15              0.21       11.79      0          0          0
J16              0.122      11.878     0          0          0
J17              0.054      11.946     0          0          0
J18              1.501      10.928     0          0          0
J19              1.441      10.928     0          0          0
J2               1.803      10.197     0          0          0
J20              1.335      10.928     0          0          0
J21              1.239      10.928     0          0          0
J22              1.113      10.928     0          0          0
J23              0.939      11.061     0          0          0
J24              1.402      10.598     0          0          0
J25              0.041      12         0          0          0
J26              1.072      10.928     0          0          0
J27              0.7        11.3       0          0          0
J28              14.623     5          0          0          0
J29              8          10.928     0          0          0
J3               1.976      10.024     0          0          0
J30              10.239     5          0          0          0
J31              10.218     3.248      0          0          0
J32              7.238      5.025      0          0          0
J33              8.7        4.45       0          0          0
J34              1.291      10.928     0          0          0
J35              5          11.3       0          0          0
J36              6.25       11.784     0          0          0
J37              4.21       11.974     0          0          0
J38              0.026      11.974     0          0          0
J39              0.216      11.784     0          0          0
INT_CSO3         2.15       9.85       0          0          0
J40              2.538      9.462      0          0          0
J41              2.336      9.664      0          0          0
J42              2.904      9.096      0          0          0
INT_CSO4         0.769      11.231     0          0          0
J44              0.552      11.448     0          0          0
J5               2.27       9.73       0          0          0
J6               2.249      9.751      0          0          0
J7               2.455      9.545      0          0          0
J8               2.52       9.48       0          0          0
J9               2.841      9.159      0          0          0

[OUTFALLS]
;;Name           Elevation  Type       Stage Data       Gated    Route To
;;-------------- ---------- ---------- ---------------- -------- ----------------
OF1              0          FREE                        NO
OF2              0          FREE                        NO
CSO3             0          FREE                        NO
CSO4             0          FREE                        NO
OF5              0          FREE                        NO
OF6              0          FREE                        NO
OF8              0          FREE                        NO

[STORAGE]
;;Name           Elev.    MaxDepth   InitDepth  Shape      Curve Type/Params            SurDepth  Fevap    Psi      Ksat     IMD
;;-------------- -------- ---------- ----------- ---------- ---------------------------- --------- --------          -------- --------
SU1              2.841    5          0          TABULAR    Opti-Lake                    0         0
SU2              0        10         0          CYLINDRICAL 40         40         0        0         0
SU3              0        10         0          FUNCTIONAL 1000       0          0        0         0
SU4              1.34     10         0          CYLINDRICAL 90         90         0        0         0

[CONDUITS]
;;Name           From Node        To Node          Length     Roughness  InOffset   OutOffset  InitFlow   MaxFlow
;;-------------- ---------------- ---------------- ---------- ---------- ---------- ---------- ---------- ----------
C1               J9               J8               1597.754   0.01       0          0          0          0
C10              J10              J11              848.642    0.01       0          0          0          0
C11              SU2              OF5              354.547    0.01       7          0          0          0
C11_1            J11              J24              697.666    0.01       0          0          0          0
C11_2            J24              J12              309.497    0.01       0          0          0          0
C12_1            J12              J44              432.979    0.01       0          0          0          0
C12_2            J44              J13              528.664    0.01       0          0          0          0
C13              J13              J14              374.541    0.01       0          0          0          0
C14              J14              J15              809.78     0.01       0          0          0          0
C15              J15              J16              437.237    0.01       0          0          0          0
C16              J16              J17              341.67     0.01       0          0          0          0
C17              J17              SU2              269.864    0.01       0          0          0          0
C18              J18              J19              598.997    0.01       0          0          0          0
C19              J19              J20              1058.638   0.01       0          0          0          0
C2               J8               J7               326.306    0.01       0          0          0          0
C20              J29              J34              1193.305   0.01       0          5          0          0
C20_1            J20              J34              426.714    0.01       0          0          0          0
C20_2            J34              J21              522.853    0.01       0          0          0          0
C21              J21              J22              1251.139   0.01       0          0          0          0
C22              J25              OF8              410.195    0.01       0          0          0          0
C23_2            J26              J23              1099.152   0.01       0          0          0          0
C24              J28              J32              2953.407   0.01       0          0          0          0
C24_2            J27              J39              4023.184   0.01       0          0          0          0
C24_3            J23              INT_CSO4         1410.567   0.01       0          0          0          0
C24_4            J38              SU3              211.029    0.01       0          0          0          0
C24_5            J39              J38              1575.645   0.01       0          0          0          0
C24_6            INT_CSO4         J27              577.201    0.01       0          0          0          0
C25              SU3              OF6              868.154    0.01       8          0          0          0
C26              J32              J20              360.884    0.01       0          5          0          0
C27              J30              J33              616.83     0.01       0          0          0          0
C27_1            J31              J33              1816.864   0.01       0          0          0          0
C27_2            J33              J21              580.71     0.01       0          5          0          0
C28              J35              J27              1609.584   0.01       0          3.25       0          0
C29              J37              J38              556.476    0.01       0          3.28       0          0
C3               J42              J41              2842.025   0.01       0          0          0          0
C3_1             J7               J41              598.018    0.01       0          0          0          0
C3_2             J41              J5               321.026    0.01       0          0          0          0
C30              J36              J39              963.741    0.01       0          4          0          0
C31              J40              J3               2808.188   0.01       0          0          0          0
C4               J5               J6               104.406    0.01       0          0          0          0
C5               J6               INT_CSO3         498.432    0.01       0          0          0          0
C6               J3               J2               864.523    0.01       0          0          0          0
C7               INT_CSO3         J3               865.605    0.01       0          0          0          0
C8               J1               J2               770.064    0.01       0          0          0          0
C9               J2               J10              453.104    0.01       0          0          0          0

[PUMPS]
;;Name           From Node        To Node          Pump Curve       Status   Sartup Shutoff
;;-------------- ---------------- ---------------- ---------------- ------ -------- --------
C23              J12              J27              C23_pump_curve   OFF      0        0
P1               SU2              OF1              Pump1_curve      ON       0        0
P2               SU3              OF2              Pump2_curve      ON       0        0
P3               SU4              J12              Pump3_curve      ON       0        0

[ORIFICES]
;;Name           From Node        To Node          Type         Offset     Qcoeff     Gated    CloseTime
;;-------------- ---------------- ---------------- ------------ ---------- ---------- -------- ----------
C23_1            J22              J26              SIDE         0          0.65       YES      0
OR1              SU1              J9               SIDE         0          0.65       NO       0
OR2              J24              SU4              SIDE         0          0.65       NO       0

[WEIRS]
;;Name           From Node        To Node          Type         CrestHt    Qcoeff     Gated    EndCon   EndCoeff   Surcharge  RoadWidth  RoadSurf   Coeff. Curve
;;-------------- ---------------- ---------------- ------------ ---------- ---------- -------- -------- ---------- ---------- ---------- ---------- ----------------
W1               J22              J25              TRANSVERSE   0          3.33       NO       0        0          YES
W2               INT_CSO3         CSO3             TRAPEZOIDAL  6          3.33       NO       0        0          YES
W3               INT_CSO4         CSO4             TRAPEZOIDAL  3          3.33       NO       0        0          YES

[XSECTIONS]
;;Link           Shape        Geom1            Geom2      Geom3      Geom4      Barrels    Culvert
;;-------------- ------------ ---------------- ---------- ---------- ---------- ---------- ----------
C1               CIRCULAR     3                0          0          0          1
C10              CIRCULAR     5                0          0          0          1
C11              RECT_OPEN    2                7          0          0          1
C11_1            CIRCULAR     5                0          0          0          1
C11_2            CIRCULAR     5                0          0          0          1
C12_1            CIRCULAR     5                0          0          0          1
C12_2            CIRCULAR     5                0          0          0          1
C13              CIRCULAR     5                0          0          0          1
C14              CIRCULAR     5                0          0          0          1
C15              CIRCULAR     5                0          0          0          1
C16              CIRCULAR     5                0          0          0          1
C17              CIRCULAR     5                0          0          0          1
C18              CIRCULAR     8                0          0          0          1
C19              CIRCULAR     8                0          0          0          1
C2               CIRCULAR     3                0          0          0          1
C20              CIRCULAR     1                0          0          0          1
C20_1            CIRCULAR     8                0          0          0          1
C20_2            CIRCULAR     8                0          0          0          1
C21              CIRCULAR     8                0          0          0          1
C22              CIRCULAR     8                0          0          0          1
C23_2            CIRCULAR     3                0          0          0          1
C24              CIRCULAR     1                0          0          0          1
C24_2            CIRCULAR     3                0          0          0          1
C24_3            CIRCULAR     3                0          0          0          1
C24_4            CIRCULAR     3                0          0          0          1
C24_5            CIRCULAR     3                0          0          0          1
C24_6            CIRCULAR     3                0          0          0          1
C25              RECT_OPEN    1                4          0          0          1
C26              CIRCULAR     1                0          0          0          1
C27              CIRCULAR     1                0          0          0          1
C27_1            CIRCULAR     1                0          0          0          1
C27_2            CIRCULAR     1                0          0          0          1
C28              CIRCULAR     1                0          0          0          1
C29              CIRCULAR     1                0          0          0          1
C3               CIRCULAR     1                0          0          0          1
C3_1             CIRCULAR     4                0          0          0          1
C3_2             CIRCULAR     4                0          0          0          1
C30              CIRCULAR     1                0          0          0          1
C31              CIRCULAR     1                0          0          0          1
C4               CIRCULAR     4                0          0          0          1
C5               CIRCULAR     4                0          0          0          1
C6               CIRCULAR     4                0          0          0          1
C7               CIRCULAR     4                0          0          0          1
C8               CIRCULAR     1                0          0          0          1
C9               CIRCULAR     4                0          0          0          1
C23_1            CIRCULAR     1                0          0          0
OR1              CIRCULAR     1                0          0          0
OR2              CIRCULAR     1                0          0          0
W1               RECT_OPEN    6                3          0          0
W2               TRAPEZOIDAL  6                4          0          0
W3               TRAPEZOIDAL  6                3          0          0

[DWF]
;;Node           Constituent      Baseline   Patterns
;;-------------- ---------------- ---------- ----------
J1	FLOW	0.849	DWF1-Hourly	DWF1-Weekend
J10	FLOW	0.54625	DWF1-Hourly	DWF1-Weekend
J11	FLOW	0.178	DWF1-Hourly	DWF1-Weekend
J12	FLOW	0.58775	DWF1-Hourly	DWF1-Weekend
J13	FLOW	1.10225	DWF1-Hourly	DWF1-Weekend
J14	FLOW	0.28975	DWF1-Hourly	DWF1-Weekend
J15	FLOW	0.3895	DWF1-Hourly	DWF1-Weekend
J16	FLOW	0.64525	DWF1-Hourly	DWF1-Weekend
J17	FLOW	1.24125	DWF1-Hourly	DWF1-Weekend
J18	FLOW	0.52875	DWF1-Hourly	DWF1-Weekend
J19	FLOW	0.6855	DWF1-Hourly	DWF1-Weekend
J2	FLOW	1.2215	DWF1-Hourly	DWF1-Weekend
J20	FLOW	0.67775	DWF1-Hourly	DWF1-Weekend
J21	FLOW	0.69825	DWF1-Hourly	DWF1-Weekend
J22	FLOW	0.097	DWF1-Hourly	DWF1-Weekend
J23	FLOW	1.159	DWF1-Hourly	DWF1-Weekend
J24	FLOW	0.094	DWF1-Hourly	DWF1-Weekend
J25	FLOW	1.21125	DWF1-Hourly	DWF1-Weekend
J26	FLOW	0.68	DWF1-Hourly	DWF1-Weekend
J27	FLOW	0.6435	DWF1-Hourly	DWF1-Weekend
J28	FLOW	0.303	DWF1-Hourly	DWF1-Weekend
J29	FLOW	0.27425	DWF1-Hourly	DWF1-Weekend
J3	FLOW	0.686	DWF1-Hourly	DWF1-Weekend
J30	FLOW	0.40675	DWF1-Hourly	DWF1-Weekend
J31	FLOW	0.7785	DWF1-Hourly	DWF1-Weekend
J32	FLOW	0.09475	DWF1-Hourly	DWF1-Weekend
J33	FLOW	0.6685	DWF1-Hourly	DWF1-Weekend
J34	FLOW	1.2095	DWF1-Hourly	DWF1-Weekend
J35	FLOW	0.43925	DWF1-Hourly	DWF1-Weekend
J36	FLOW	0.474	DWF1-Hourly	DWF1-Weekend
J37	FLOW	1.03125	DWF1-Hourly	DWF1-Weekend
J38	FLOW	0.186	DWF1-Hourly	DWF1-Weekend
J39	FLOW	1.07525	DWF1-Hourly	DWF1-Weekend
INT_CSO3	FLOW	1.22675	DWF1-Hourly	DWF1-Weekend
J40	FLOW	0.69	DWF1-Hourly	DWF1-Weekend
J41	FLOW	1.1115	DWF1-Hourly	DWF1-Weekend
J42	FLOW	0.64625	DWF1-Hourly	DWF1-Weekend
INT_CSO4	FLOW	0.82575	DWF1-Hourly	DWF1-Weekend
J44	FLOW	1.0755	DWF1-Hourly	DWF1-Weekend
J5	FLOW	1.03625	DWF1-Hourly	DWF1-Weekend
J6	FLOW	1.1315	DWF1-Hourly	DWF1-Weekend
J7	FLOW	0.111	DWF1-Hourly	DWF1-Weekend
J8	FLOW	0.176	DWF1-Hourly	DWF1-Weekend
J9	FLOW	0.31775	DWF1-Hourly	DWF1-Weekend

[HYDROGRAPHS]
;;Hydrograph     Rain Gage/Month  Response R        T        K        Dmax     Drecov   Dinit
;;-------------- ---------------- -------- -------- -------- -------- -------- -------- --------
Hydrograph1      RainGage
Hydrograph1      All              Short    0.0105   1.1666665 4.25     0        0        0
Hydrograph1      All              Medium   0.022625 4.875    3.75     0        0        0
Hydrograph1      All              Long     0.03825  12.5     6.75     0        0        0
Hydrograph2      RainGage
Hydrograph2      All              Short    0.001    1        1        0        0        0
Hydrograph2      All              Medium   0.01015  2.75     4        0        0        0
Hydrograph2      All              Long     0.0075   8.55     7.78     0        0        0


[RDII]
;;Node           Unit Hydrograph  Sewer Area
;;-------------- ---------------- ----------
J1               Hydrograph2      1
J10              Hydrograph2      1
J11              Hydrograph2      1
J12              Hydrograph2      1
J13              Hydrograph2      1
J14              Hydrograph2      1
J15              Hydrograph2      1
J16              Hydrograph2      1
J17              Hydrograph2      1
J18              Hydrograph1      1
J19              Hydrograph1      1
J2               Hydrograph2      1
J20              Hydrograph1      1
J21              Hydrograph1      1
J22              Hydrograph1      1
J23              Hydrograph2      1
J24              Hydrograph2      1
J25              Hydrograph1      1
J26              Hydrograph1      1
J27              Hydrograph2      1
J28              Hydrograph1      1
J29              Hydrograph1      1
J3               Hydrograph1      1
J30              Hydrograph1      1
J31              Hydrograph1      1
J32              Hydrograph1      1
J33              Hydrograph1      1
J34              Hydrograph1      1
J35              Hydrograph2      1
J36              Hydrograph2      1
J37              Hydrograph1      1
J38              Hydrograph2      1
J39              Hydrograph2      1
INT_CSO3         Hydrograph1      1
J40              Hydrograph1      1
J41              Hydrograph1      1
J42              Hydrograph1      1
INT_CSO4         Hydrograph2      1
J44              Hydrograph2      1
J5               Hydrograph1      1
J6               Hydrograph1      1
J7               Hydrograph1      1
J8               Hydrograph1      1
J9               Hydrograph1      1

[CURVES]
;;Name           Type       X-Value    Y-Value
;;-------------- ---------- ---------- ----------
Pump1_curve      Pump4      0          50
Pump1_curve                 100        50
;
Pump2_curve      Pump4      0          30
Pump2_curve                 100        30
;
Pump3_curve      Pump4      0          20
Pump3_curve                 100        20
;
C23_pump_curve   Pump4      0          20
C23_pump_curve              100        20
;
Opti-Lake        Storage    0          0
Opti-Lake                   1          5000
Opti-Lake                   2          15000
Opti-Lake                   3          18000
Opti-Lake                   4          22000

[TIMESERIES]
;;Name           Date       Time       Value
;;-------------- ---------- ---------- ----------
;SCS_Type_III_1in design storm, total rainfall = 1 in, rain interval = 6 minutes, rain units = in.
SCS_Type_III_1yr_24hr_Hartford            0:00       0.001
SCS_Type_III_1yr_24hr_Hartford            0:06       0.001
SCS_Type_III_1yr_24hr_Hartford            0:12       0.001
SCS_Type_III_1yr_24hr_Hartford            0:18       0.001
SCS_Type_III_1yr_24hr_Hartford            0:24       0.001
SCS_Type_III_1yr_24hr_Hartford            0:30       0.001
SCS_Type_III_1yr_24hr_Hartford            0:36       0.001
SCS_Type_III_1yr_24hr_Hartford            0:42       0.001
SCS_Type_III_1yr_24hr_Hartford            0:48       0.001
SCS_Type_III_1yr_24hr_Hartford            0:54       0.001
SCS_Type_III_1yr_24hr_Hartford            1:00       0.001
SCS_Type_III_1yr_24hr_Hartford            1:06       0.001
SCS_Type_III_1yr_24hr_Hartford            1:12       0.001
SCS_Type_III_1yr_24hr_Hartford            1:18       0.001
SCS_Type_III_1yr_24hr_Hartford            1:24       0.001
SCS_Type_III_1yr_24hr_Hartford            1:30       0.001
SCS_Type_III_1yr_24hr_Hartford            1:36       0.001
SCS_Type_III_1yr_24hr_Hartford            1:42       0.001
SCS_Type_III_1yr_24hr_Hartford            1:48       0.001
SCS_Type_III_1yr_24hr_Hartford            1:54       0.001
SCS_Type_III_1yr_24hr_Hartford            2:00       0.00101
SCS_Type_III_1yr_24hr_Hartford            2:06       0.00102
SCS_Type_III_1yr_24hr_Hartford            2:12       0.00104
SCS_Type_III_1yr_24hr_Hartford            2:18       0.00105
SCS_Type_III_1yr_24hr_Hartford            2:24       0.00107
SCS_Type_III_1yr_24hr_Hartford            2:30       0.00108
SCS_Type_III_1yr_24hr_Hartford            2:36       0.0011
SCS_Type_III_1yr_24hr_Hartford            2:42       0.00111
SCS_Type_III_1yr_24hr_Hartford            2:48       0.00113
SCS_Type_III_1yr_24hr_Hartford            2:54       0.00114
SCS_Type_III_1yr_24hr_Hartford            3:00       0.00116
SCS_Type_III_1yr_24hr_Hartford            3:06       0.00117
SCS_Type_III_1yr_24hr_Hartford            3:12       0.00119
SCS_Type_III_1yr_24hr_Hartford            3:18       0.0012
SCS_Type_III_1yr_24hr_Hartford            3:24       0.00122
SCS_Type_III_1yr_24hr_Hartford            3:30       0.00123
SCS_Type_III_1yr_24hr_Hartford            3:36       0.00125
SCS_Type_III_1yr_24hr_Hartford            3:42       0.00126
SCS_Type_III_1yr_24hr_Hartford            3:48       0.00128
SCS_Type_III_1yr_24hr_Hartford            3:54       0.00129
SCS_Type_III_1yr_24hr_Hartford            4:00       0.00131
SCS_Type_III_1yr_24hr_Hartford            4:06       0.00132
SCS_Type_III_1yr_24hr_Hartford            4:12       0.00134
SCS_Type_III_1yr_24hr_Hartford            4:18       0.00135
SCS_Type_III_1yr_24hr_Hartford            4:24       0.00137
SCS_Type_III_1yr_24hr_Hartford            4:30       0.00138
SCS_Type_III_1yr_24hr_Hartford            4:36       0.0014
SCS_Type_III_1yr_24hr_Hartford            4:42       0.00141
SCS_Type_III_1yr_24hr_Hartford            4:48       0.00143
SCS_Type_III_1yr_24hr_Hartford            4:54       0.00144
SCS_Type_III_1yr_24hr_Hartford            5:00       0.00146
SCS_Type_III_1yr_24hr_Hartford            5:06       0.00147
SCS_Type_III_1yr_24hr_Hartford            5:12       0.00149
SCS_Type_III_1yr_24hr_Hartford            5:18       0.0015
SCS_Type_III_1yr_24hr_Hartford            5:24       0.00152
SCS_Type_III_1yr_24hr_Hartford            5:30       0.00153
SCS_Type_III_1yr_24hr_Hartford            5:36       0.00155
SCS_Type_III_1yr_24hr_Hartford            5:42       0.00156
SCS_Type_III_1yr_24hr_Hartford            5:48       0.00158
SCS_Type_III_1yr_24hr_Hartford            5:54       0.00159
SCS_Type_III_1yr_24hr_Hartford            6:00       0.00163
SCS_Type_III_1yr_24hr_Hartford            6:06       0.00167
SCS_Type_III_1yr_24hr_Hartford            6:12       0.00173
SCS_Type_III_1yr_24hr_Hartford            6:18       0.00177
SCS_Type_III_1yr_24hr_Hartford            6:24       0.00183
SCS_Type_III_1yr_24hr_Hartford            6:30       0.00187
SCS_Type_III_1yr_24hr_Hartford            6:36       0.00193
SCS_Type_III_1yr_24hr_Hartford            6:42       0.00197
SCS_Type_III_1yr_24hr_Hartford            6:48       0.00203
SCS_Type_III_1yr_24hr_Hartford            6:54       0.00207
SCS_Type_III_1yr_24hr_Hartford            7:00       0.00213
SCS_Type_III_1yr_24hr_Hartford            7:06       0.00217
SCS_Type_III_1yr_24hr_Hartford            7:12       0.00223
SCS_Type_III_1yr_24hr_Hartford            7:18       0.00227
SCS_Type_III_1yr_24hr_Hartford            7:24       0.00233
SCS_Type_III_1yr_24hr_Hartford            7:30       0.00237
SCS_Type_III_1yr_24hr_Hartford            7:36       0.00243
SCS_Type_III_1yr_24hr_Hartford            7:42       0.00247
SCS_Type_III_1yr_24hr_Hartford            7:48       0.00253
SCS_Type_III_1yr_24hr_Hartford            7:54       0.00257
SCS_Type_III_1yr_24hr_Hartford            8:00       0.00266
SCS_Type_III_1yr_24hr_Hartford            8:06       0.00277
SCS_Type_III_1yr_24hr_Hartford            8:12       0.00289
SCS_Type_III_1yr_24hr_Hartford            8:18       0.003
SCS_Type_III_1yr_24hr_Hartford            8:24       0.00312
SCS_Type_III_1yr_24hr_Hartford            8:30       0.00323
SCS_Type_III_1yr_24hr_Hartford            8:36       0.00335
SCS_Type_III_1yr_24hr_Hartford            8:42       0.00346
SCS_Type_III_1yr_24hr_Hartford            8:48       0.00358
SCS_Type_III_1yr_24hr_Hartford            8:54       0.00369
SCS_Type_III_1yr_24hr_Hartford            9:00       0.00381
SCS_Type_III_1yr_24hr_Hartford            9:06       0.00392
SCS_Type_III_1yr_24hr_Hartford            9:12       0.00404
SCS_Type_III_1yr_24hr_Hartford            9:18       0.00415
SCS_Type_III_1yr_24hr_Hartford            9:24       0.00427
SCS_Type_III_1yr_24hr_Hartford            9:30       0.00438
SCS_Type_III_1yr_24hr_Hartford            9:36       0.0045
SCS_Type_III_1yr_24hr_Hartford            9:42       0.00461
SCS_Type_III_1yr_24hr_Hartford            9:48       0.00473
SCS_Type_III_1yr_24hr_Hartford            9:54       0.00484
SCS_Type_III_1yr_24hr_Hartford            10:00      0.00502
SCS_Type_III_1yr_24hr_Hartford            10:06      0.00526
SCS_Type_III_1yr_24hr_Hartford            10:12      0.0055
SCS_Type_III_1yr_24hr_Hartford            10:18      0.00574
SCS_Type_III_1yr_24hr_Hartford            10:24      0.00598
SCS_Type_III_1yr_24hr_Hartford            10:30      0.00622
SCS_Type_III_1yr_24hr_Hartford            10:36      0.00646
SCS_Type_III_1yr_24hr_Hartford            10:42      0.0067
SCS_Type_III_1yr_24hr_Hartford            10:48      0.00694
SCS_Type_III_1yr_24hr_Hartford            10:54      0.00718